* C:\Users\WOW\Documents\stuff\KiCAD.HideMyAss\hardware-modular\oscillators\2n2222-osc\simulation.wxsch
*#SIMETRIX
V1 V1_P 0 3.3
R1 V1_P C2_N 150
R2 V1_P L1_N 1.8k
R3 L1_N 0 1.8k
L1 C2_N L1_N 200n   
R4 C2_P 0 50
R5 R8_N 0 580
R6 Q2_E 0 17
R7 V1_P R7_N 50
R8 V1_P R8_N 620
Q1 C2_N L1_N C2_P 0 Q2N2222
Q2 R7_N R8_N Q2_E 0 Q2N2222
C1 C2_P 0 50p   
C2 C2_P C2_N 2.2p   
C3 L1_N C2_P 2.2p   
C4 R8_N C2_N 111n   
C5 Q2_E 0 50p   
.TRAN 10u 10m

